*SRC=DMN2230U;DI_DMN2230U;MOSFETs N;Enh;20.0V 2.00A 0.110ohms  Diodes Inc MOSFET
.MODEL DI_DMN2230U  NMOS( LEVEL=1 VTO=1.00 KP=10.4  GAMMA=1.24
+ PHI=.75  LAMBDA=127u RD=15.4m RS=15.4m
+ IS=1.00p  PB=0.800 MJ=0.460 CBD=46.4p 
+ CBS=55.6p  CGSO=360n CGDO=300n CGBO=1.22u  )
*   -- Assumes default L=100U W=100U --