Version 4
SHEET 1 880 680
WIRE -272 -688 -576 -688
WIRE 320 -688 -272 -688
WIRE 448 -688 320 -688
WIRE 544 -688 448 -688
WIRE 448 -672 448 -688
WIRE -272 -640 -272 -688
WIRE 320 -640 320 -688
WIRE -272 -528 -272 -560
WIRE 448 -448 448 -592
WIRE 544 -448 544 -608
WIRE 320 -400 320 -512
WIRE 384 -400 320 -400
WIRE 480 -400 384 -400
WIRE 320 -368 320 -400
WIRE 560 -352 544 -352
WIRE -576 -240 -576 -688
WIRE -576 -240 -848 -240
WIRE -880 -224 -880 -336
WIRE -800 -208 -800 -336
WIRE -800 -208 -816 -208
WIRE -96 -208 -800 -208
WIRE -880 -192 -928 -192
WIRE -96 -192 -96 -208
WIRE -64 -192 -96 -192
WIRE 80 -192 -64 -192
WIRE 192 -192 160 -192
WIRE 320 -192 192 -192
WIRE 560 -192 560 -352
WIRE 560 -192 400 -192
WIRE -928 -160 -928 -192
WIRE -576 -160 -576 -240
WIRE -576 -80 -688 -80
WIRE -272 -80 -272 -448
WIRE -224 -80 -272 -80
WIRE 32 -80 -144 -80
WIRE 80 -80 32 -80
WIRE 272 -80 160 -80
WIRE 768 -80 272 -80
WIRE -688 -32 -688 -80
WIRE -272 -32 -272 -80
WIRE -64 -32 -64 -192
WIRE 32 -32 32 -80
WIRE 192 -32 192 -192
WIRE 272 -32 272 -80
WIRE 560 -32 560 -192
WIRE 768 16 768 -80
WIRE -848 48 -848 -176
WIRE -576 48 -576 0
WIRE -576 48 -848 48
WIRE -64 64 -64 32
WIRE -16 64 -64 64
WIRE 32 64 32 32
WIRE 32 64 -16 64
WIRE 192 64 192 32
WIRE 224 64 192 64
WIRE 272 64 272 32
WIRE 272 64 224 64
WIRE 96 96 -144 96
WIRE 336 96 96 96
WIRE 448 96 448 -352
WIRE 448 96 336 96
WIRE 656 96 448 96
WIRE -272 144 -272 32
WIRE -208 144 -272 144
WIRE -16 144 -16 64
WIRE 32 144 -16 144
WIRE 224 144 224 64
WIRE 272 144 224 144
WIRE 560 144 560 32
WIRE 592 144 560 144
WIRE 336 240 336 192
WIRE 656 240 656 192
WIRE -144 256 -144 192
WIRE -272 272 -272 144
WIRE -16 272 -16 144
WIRE 224 272 224 144
WIRE 560 272 560 144
WIRE -576 400 -576 48
WIRE -272 400 -272 352
WIRE -272 400 -576 400
WIRE -16 400 -16 352
WIRE -16 400 -272 400
WIRE 224 400 224 352
WIRE 224 400 -16 400
WIRE 560 400 560 352
WIRE 560 400 224 400
FLAG 768 16 0
FLAG -688 -32 0
FLAG -1936 -272 cv
FLAG -1936 -192 0
FLAG 320 -288 0
FLAG -960 -224 cv
FLAG -928 -80 0
FLAG -144 336 0
FLAG 96 272 0
FLAG 336 320 0
FLAG 656 320 0
DATAFLAG -320 -208 ""
DATAFLAG 240 -192 ""
DATAFLAG 512 -192 ""
DATAFLAG 400 -80 ""
DATAFLAG 224 -80 ""
DATAFLAG -16 -80 ""
DATAFLAG -256 -80 ""
SYMBOL pnp 32 192 M180
SYMATTR InstName Q1
SYMBOL pnp 272 192 M180
SYMATTR InstName Q2
SYMBOL pnp 592 192 M180
SYMATTR InstName Q3
SYMBOL pnp -208 192 M180
SYMATTR InstName Q4
SYMBOL diode -288 -32 R0
SYMATTR InstName D1
SYMATTR Value 1N4148
SYMBOL diode 16 -32 R0
SYMATTR InstName D2
SYMATTR Value 1N4148
SYMBOL diode 256 -32 R0
SYMATTR InstName D3
SYMATTR Value 1N4148
SYMBOL diode -80 -32 R0
SYMATTR InstName D4
SYMATTR Value 1N4148
SYMBOL res -288 256 R0
SYMATTR InstName R1
SYMATTR Value 1Meg
SYMBOL res -32 256 R0
SYMATTR InstName R2
SYMATTR Value 1Meg
SYMBOL res 208 256 R0
SYMATTR InstName R3
SYMATTR Value 1Meg
SYMBOL res 544 256 R0
SYMATTR InstName R4
SYMATTR Value 1Meg
SYMBOL diode 176 -32 R0
SYMATTR InstName D5
SYMATTR Value 1N4148
SYMBOL res -128 -96 R90
WINDOW 0 0 56 VBottom 2
WINDOW 3 32 56 VTop 2
SYMATTR InstName R5
SYMATTR Value 400
SYMBOL res 176 -96 R90
WINDOW 0 0 56 VBottom 2
WINDOW 3 32 56 VTop 2
SYMATTR InstName R6
SYMATTR Value 400
SYMBOL diode 544 -32 R0
SYMATTR InstName D6
SYMATTR Value 1N4148
SYMBOL res 176 -208 R90
WINDOW 0 0 56 VBottom 2
WINDOW 3 32 56 VTop 2
SYMATTR InstName R7
SYMATTR Value 400
SYMBOL res 416 -208 R90
WINDOW 0 0 56 VBottom 2
WINDOW 3 32 56 VTop 2
SYMATTR InstName R8
SYMATTR Value 400
SYMBOL pnp 480 -352 M180
SYMATTR InstName Q5
SYMBOL pnp 384 -352 M180
SYMATTR InstName Q6
SYMBOL res 432 -688 R0
SYMATTR InstName R9
SYMATTR Value 1K
SYMBOL res 528 -704 R0
SYMATTR InstName R10
SYMATTR Value 100
SYMBOL voltage -576 -176 R0
WINDOW 123 0 0 Left 0
WINDOW 39 0 0 Left 0
SYMATTR InstName V2
SYMATTR Value +15
SYMBOL voltage -576 16 R180
WINDOW 0 24 96 Left 2
WINDOW 3 24 16 Left 2
WINDOW 123 0 0 Left 0
WINDOW 39 0 0 Left 0
SYMATTR InstName V1
SYMATTR Value -15
SYMBOL voltage -1936 -288 R0
WINDOW 123 0 0 Left 0
WINDOW 39 0 0 Left 0
SYMATTR InstName V3
SYMATTR Value dc 5 PULSE(-5 5 0 0m 5m 0 5m)
SYMBOL diode 304 -640 R0
SYMATTR InstName D7
SYMATTR Value 1N4148
SYMBOL diode 304 -576 R0
SYMATTR InstName D8
SYMATTR Value 1N4148
SYMBOL res 304 -384 R0
SYMATTR InstName R12
SYMATTR Value 10k
SYMBOL res -288 -656 R0
SYMATTR InstName R11
SYMATTR Value 4.3K
SYMBOL OpAmps\\LT1014 -848 -272 R0
SYMATTR InstName U1
SYMBOL res -944 -176 R0
SYMATTR InstName R13
SYMATTR Value 3.9k
SYMBOL res -784 -352 R90
WINDOW 0 0 56 VBottom 2
WINDOW 3 32 56 VTop 2
SYMATTR InstName R14
SYMATTR Value 62k
SYMBOL res -864 -240 R90
WINDOW 0 0 56 VBottom 2
WINDOW 3 32 56 VTop 2
SYMATTR InstName R15
SYMATTR Value 100k
SYMBOL res -288 -544 R0
SYMATTR InstName R16
SYMATTR Value 1K
SYMBOL res -160 240 R0
SYMATTR InstName R17
SYMATTR Value 10K
SYMBOL res 80 176 R0
SYMATTR InstName R18
SYMATTR Value 10K
SYMBOL res 320 224 R0
SYMATTR InstName R19
SYMATTR Value 10K
SYMBOL res 640 224 R0
SYMATTR InstName R20
SYMATTR Value 10K
TEXT -976 408 Left 2 !.tran 0 30m 0 1u
TEXT -1970 428 Left 2 !.op
