*
.MODEL J2N5459 NJF (IS=1N VT0=-4 BETA=0.5M  
+ LAMBDA=2.40E-3 CGD=5.85PF CGD=3.49PF) 
