*SRC=DMMT3906W;DI_DMMT3906W;BJTs PNP; Si;  40.0V  0.200A  257MHz   Diodes, Inc. PNP 
.MODEL DI_DMMT3906W  PNP (IS=20.3f NF=1.00 BF=274 VAF=114 
+ IKF=36.4m ISE=6.99p NE=2.00 BR=4.00 NR=1.00 
+ VAR=20.0 IKR=90.0m RE=1.01 RB=4.03 RC=0.403 
+ XTB=1.5 CJE=12.1p VJE=1.10 MJE=0.500 CJC=10.7p VJC=0.300 
+ MJC=0.300 TF=531p TR=85.6n EG=1.12 )