*$
*.model D1N4148  D(Is=5.84n N=1.94 Rs=.7017 Ikf=44.17m Xti=3 Eg=1.11 Cjo=.95p
*+               M=.55 Vj=.75 Fc=.5 Isr=11.07n Nr=2.088 Bv=100 Ibv=100u Tt=11.07n)


.model D1N4148 D 
+ IS = 4.352E-9 
+ N = 1.906 
+ BV = 110 
+ IBV = 0.0001 
+ RS = 0.6458 
+ CJO = 7.048E-13 
+ VJ = 0.869 
+ M = 0.03 
+ FC = 0.5 
+ TT = 3.48E-9