*SRC=DMMT3904W;DI_DMMT3904W;BJTs NPN; Si;  40.0V  0.200A  347MHz   Diodes
*Inc. Matched Transistor
.MODEL DI_DMMT3904W  NPN (IS=20.3f NF=1.00 BF=274 VAF=114
+ IKF=36.4m ISE=6.99p NE=2.00 BR=4.00 NR=1.00
+ VAR=24.0 IKR=90.0m RE=0.657 RB=2.63 RC=0.263
+ XTB=1.5 CJE=8.29p VJE=1.10 MJE=0.500 CJC=7.10p VJC=0.300
+ MJC=0.300 TF=426p TR=71.3n EG=1.12 )