Version 4
SHEET 1 1084 680
WIRE 128 -192 -352 -192
WIRE 320 -192 128 -192
WIRE 656 -192 320 -192
WIRE 128 -80 128 -192
WIRE 320 -80 320 -192
WIRE 128 16 128 0
WIRE 480 16 128 16
WIRE 592 16 560 16
WIRE 656 32 656 -192
WIRE 128 48 128 16
WIRE 592 48 592 16
WIRE 608 48 608 -96
WIRE 608 48 592 48
WIRE 624 48 608 48
WIRE 320 64 320 0
WIRE 688 64 688 -96
WIRE 720 64 688 64
WIRE 864 64 800 64
WIRE 624 80 608 80
WIRE 128 112 128 48
WIRE 320 112 320 64
WIRE 480 112 320 112
WIRE 608 112 608 80
WIRE 608 112 560 112
WIRE -352 144 -352 -192
WIRE 64 160 32 160
WIRE 224 208 128 208
WIRE 320 208 224 208
WIRE 608 208 608 112
WIRE -304 384 -384 384
WIRE -192 384 -224 384
WIRE 32 384 -96 384
WIRE 128 384 32 384
WIRE 32 416 32 384
WIRE 224 416 224 208
WIRE -384 432 -384 384
WIRE 128 464 128 384
WIRE 128 464 96 464
WIRE 160 464 128 464
WIRE 32 544 32 512
WIRE 128 544 32 544
WIRE 224 544 224 512
WIRE 224 544 128 544
WIRE 656 544 656 96
WIRE 656 544 224 544
FLAG -352 224 0
FLAG -608 400 0
FLAG -896 400 0
FLAG -896 320 IN_1
FLAG -608 320 IN_2
FLAG 128 48 OUT_1
FLAG 320 64 OUT_2
FLAG 32 160 IN_1
FLAG 384 160 IN_2
FLAG 608 288 0
FLAG 864 64 OUT
FLAG 128 624 0
FLAG -144 448 0
FLAG -384 512 0
SYMBOL npn 64 112 R0
SYMATTR InstName Q1
SYMATTR Value BC547C
SYMBOL npn 384 112 M0
SYMATTR InstName Q2
SYMATTR Value BC547C
SYMBOL Misc\\signal -352 128 R0
WINDOW 123 0 0 Left 0
WINDOW 39 0 0 Left 0
SYMATTR InstName V1
SYMATTR Value +15
SYMBOL res 112 -96 R0
SYMATTR InstName R2
SYMATTR Value 15k
SYMATTR SpiceLine tol=1 pwr=0.25
SYMBOL res 304 -96 R0
SYMATTR InstName R3
SYMATTR Value 15k
SYMATTR SpiceLine tol=1 pwr=0.25
SYMBOL Misc\\signal -896 304 R0
WINDOW 123 0 0 Left 0
WINDOW 39 0 0 Left 0
SYMATTR InstName V3
SYMATTR Value SINE(0 1m 1k)
SYMBOL Misc\\signal -608 304 R0
WINDOW 123 0 0 Left 0
WINDOW 39 0 0 Left 0
SYMATTR InstName V4
SYMATTR Value 0
SYMBOL Misc\\signal 128 640 R180
WINDOW 123 0 0 Left 0
WINDOW 39 0 0 Left 0
SYMATTR InstName V2
SYMATTR Value 15
SYMBOL res 576 0 R90
WINDOW 0 0 56 VBottom 2
WINDOW 3 32 56 VTop 2
SYMATTR InstName R4
SYMATTR Value 10k
SYMBOL res 576 96 R90
WINDOW 0 0 56 VBottom 2
WINDOW 3 32 56 VTop 2
SYMATTR InstName R5
SYMATTR Value 10k
SYMBOL res 592 192 R0
SYMATTR InstName R6
SYMATTR Value 220k
SYMBOL res 704 -112 R90
WINDOW 0 0 56 VBottom 2
WINDOW 3 32 56 VTop 2
SYMATTR InstName R7
SYMATTR Value 220k
SYMBOL res 816 48 R90
WINDOW 0 0 56 VBottom 2
WINDOW 3 32 56 VTop 2
SYMATTR InstName R9
SYMATTR Value 1k
SYMBOL OpAmps\\OP1177 656 0 R0
SYMATTR InstName U2
SYMBOL npn 160 416 R0
SYMATTR InstName Q3
SYMATTR Value BC847C
SYMBOL npn 96 416 M0
SYMATTR InstName Q4
SYMATTR Value BC847C
SYMBOL pnp -96 448 M270
SYMATTR InstName Q5
SYMBOL res -208 368 R90
WINDOW 0 0 56 VBottom 2
WINDOW 3 32 56 VTop 2
SYMATTR InstName R1
SYMATTR Value 100k
SYMBOL Misc\\signal -384 416 R0
WINDOW 123 0 0 Left 0
WINDOW 39 0 0 Left 0
SYMATTR InstName V5
SYMATTR Value PULSE(0 10 0 6m 6m)
TEXT -856 592 Left 2 !.tran 1u 30m
